16
gdb 133885	3.64015	2.21764	1.93793	0.8626	69.48	-0.2316	0.0742	0.3058	756.3557	0.127862	-400.633052	-400.627892	-400.626948	-400.662186	23.434	
C	-1.4098766039	 1.3373373609	 0.4099526107	-0.252528
N	-1.5645935686	 0.0991248506	-0.5169414085	-0.185807
C	-0.8328987002	-0.7075502499	 0.6042954267	-0.030061
C	 0.2710295071	-1.6186138429	 0.1448045117	-0.142815
C	 1.5284535968	-0.7551229418	 0.3395081289	 0.042767
O	 1.2502128073	 0.4586399968	 1.0471189507	-0.317095
C	-0.0573999238	 0.6112101834	 0.5411015062	 0.358968
C	-0.0959285633	 0.3804239493	-0.9720975179	-0.030059
C	 0.8166944813	-0.8130667666	-1.0223596478	-0.142816
H	-2.0904360778	 1.3270660878	 1.2636607576	 0.115239
H	-1.4400420103	 2.2872179783	-0.1275429128	 0.11524
H	-1.4540044954	-0.9673087774	 1.4592464484	 0.078144
H	 0.2777789004	-2.6978723974	 0.1957699995	 0.099332
H	 2.5158540612	-1.1517837735	 0.5273692559	 0.114018
H	 0.0136988019	 1.1994305695	-1.6801923032	 0.078144
H	 1.2607453273	-1.246753647	-1.9067671561	 0.099331